!-Generator IDFEditor 1.50
!-Option SortedOrder
!-NOTE: All comments with '!-' are ignored by the IDFEditor and are generated automatically.
!-      Use '!' comments if they need to be retained when using the IDFEditor.
!-   ===========  ALL OBJECTS IN CLASS: VERSION ===========

  Version,9.5;

!-   ===========  ALL OBJECTS IN CLASS: SIMULATIONCONTROL ===========

  SimulationControl,
    Yes,                     !- Do Zone Sizing Calculation
    Yes,                     !- Do System Sizing Calculation
    Yes,                     !- Do Plant Sizing Calculation
    Yes,                     !- Run Simulation for Sizing Periods
    No,                      !- Run Simulation for Weather File Run Periods
    No,                      !- Do HVAC Sizing Simulation for Sizing Periods
    1;                       !- Maximum Number of HVAC Sizing Simulation Passes

!-   ===========  ALL OBJECTS IN CLASS: BUILDING ===========

  Building,
    Building 1,              !- Name
    0.0,                     !- North Axis {deg}
    ,                        !- Terrain
    0.04,                    !- Loads Convergence Tolerance Value {W}
    0.4,                     !- Temperature Convergence Tolerance Value {deltaC}
    ,                        !- Solar Distribution
    25,                      !- Maximum Number of Warmup Days
    6;                       !- Minimum Number of Warmup Days

!-   ===========  ALL OBJECTS IN CLASS: TIMESTEP ===========

  Timestep,1;

!-   ===========  ALL OBJECTS IN CLASS: CONVERGENCELIMITS ===========

  ConvergenceLimits,
    0,                       !- Minimum System Timestep {minutes}
    20,                      !- Maximum HVAC Iterations
    2,                       !- Minimum Plant Iterations
    8;                       !- Maximum Plant Iterations

!-   ===========  ALL OBJECTS IN CLASS: SITE:LOCATION ===========

  Site:Location,
    AMSTERDAM_NLD,           !- Name
    52.3,                    !- Latitude {deg}
    4.77,                    !- Longitude {deg}
    1.0,                     !- Time Zone {hr}
    -2.0;                    !- Elevation {m}

!-   ===========  ALL OBJECTS IN CLASS: SIZINGPERIOD:DESIGNDAY ===========

  SizingPeriod:DesignDay,
    AMSTERDAM Ann Htg 99.6% Condns DB,  !- Name
    2,                       !- Month
    21,                      !- Day of Month
    WinterDesignDay,         !- Day Type
    -4.5,                    !- Maximum Dry-Bulb Temperature {C}
    0.0,                     !- Daily Dry-Bulb Temperature Range {deltaC}
    DefaultMultipliers,      !- Dry-Bulb Temperature Range Modifier Type
    ,                        !- Dry-Bulb Temperature Range Modifier Day Schedule Name
    DewPoint,                !- Humidity Condition Type
    -6.2,                    !- Wetbulb or DewPoint at Maximum Dry-Bulb {C}
    ,                        !- Humidity Condition Day Schedule Name
    ,                        !- Humidity Ratio at Maximum Dry-Bulb {kgWater/kgDryAir}
    0.0,                     !- Enthalpy at Maximum Dry-Bulb {J/kg}
    ,                        !- Daily Wet-Bulb Temperature Range {deltaC}
    103000.0,                !- Barometric Pressure {Pa}
    2.6,                     !- Wind Speed {m/s}
    20.0,                    !- Wind Direction {deg}
    No,                      !- Rain Indicator
    No,                      !- Snow Indicator
    No,                      !- Daylight Saving Time Indicator
    AshraeClearSky,          !- Solar Model Indicator
    ,                        !- Beam Solar Day Schedule Name
    ,                        !- Diffuse Solar Day Schedule Name
    ,                        !- ASHRAE Clear Sky Optical Depth for Beam Irradiance (taub) {dimensionless}
    ,                        !- ASHRAE Clear Sky Optical Depth for Diffuse Irradiance (taud) {dimensionless}
    0.0;                     !- Sky Clearness

  SizingPeriod:DesignDay,
    AMSTERDAM Ann Clg .4% Condns Enth=>MDB,  !- Name
    8,                       !- Month
    21,                      !- Day of Month
    SummerDesignDay,         !- Day Type
    28.2,                    !- Maximum Dry-Bulb Temperature {C}
    7.1,                     !- Daily Dry-Bulb Temperature Range {deltaC}
    DefaultMultipliers,      !- Dry-Bulb Temperature Range Modifier Type
    ,                        !- Dry-Bulb Temperature Range Modifier Day Schedule Name
    DewPoint,                !- Humidity Condition Type
    21.2,                    !- Wetbulb or DewPoint at Maximum Dry-Bulb {C}
    ,                        !- Humidity Condition Day Schedule Name
    ,                        !- Humidity Ratio at Maximum Dry-Bulb {kgWater/kgDryAir}
    0.0,                     !- Enthalpy at Maximum Dry-Bulb {J/kg}
    ,                        !- Daily Wet-Bulb Temperature Range {deltaC}
    100900.0,                !- Barometric Pressure {Pa}
    2.6,                     !- Wind Speed {m/s}
    60.0,                    !- Wind Direction {deg}
    No,                      !- Rain Indicator
    No,                      !- Snow Indicator
    No,                      !- Daylight Saving Time Indicator
    AshraeClearSky,          !- Solar Model Indicator
    ,                        !- Beam Solar Day Schedule Name
    ,                        !- Diffuse Solar Day Schedule Name
    ,                        !- ASHRAE Clear Sky Optical Depth for Beam Irradiance (taub) {dimensionless}
    ,                        !- ASHRAE Clear Sky Optical Depth for Diffuse Irradiance (taud) {dimensionless}
    1.0;                     !- Sky Clearness

  SizingPeriod:DesignDay,
    AMSTERDAM Ann Clg .4% Condns DB=>MWB (month 6),  !- Name
    6,                       !- Month
    21,                      !- Day of Month
    SummerDesignDay,         !- Day Type
    28.0,                    !- Maximum Dry-Bulb Temperature {C}
    7.1,                     !- Daily Dry-Bulb Temperature Range {deltaC}
    DefaultMultipliers,      !- Dry-Bulb Temperature Range Modifier Type
    ,                        !- Dry-Bulb Temperature Range Modifier Day Schedule Name
    DewPoint,                !- Humidity Condition Type
    11.1,                    !- Wetbulb or DewPoint at Maximum Dry-Bulb {C}
    ,                        !- Humidity Condition Day Schedule Name
    ,                        !- Humidity Ratio at Maximum Dry-Bulb {kgWater/kgDryAir}
    0.0,                     !- Enthalpy at Maximum Dry-Bulb {J/kg}
    ,                        !- Daily Wet-Bulb Temperature Range {deltaC}
    101200.0,                !- Barometric Pressure {Pa}
    3.6,                     !- Wind Speed {m/s}
    60.0,                    !- Wind Direction {deg}
    No,                      !- Rain Indicator
    No,                      !- Snow Indicator
    No,                      !- Daylight Saving Time Indicator
    AshraeClearSky,          !- Solar Model Indicator
    ,                        !- Beam Solar Day Schedule Name
    ,                        !- Diffuse Solar Day Schedule Name
    ,                        !- ASHRAE Clear Sky Optical Depth for Beam Irradiance (taub) {dimensionless}
    ,                        !- ASHRAE Clear Sky Optical Depth for Diffuse Irradiance (taud) {dimensionless}
    1.0;                     !- Sky Clearness

  SizingPeriod:DesignDay,
    AMSTERDAM Ann Clg .4% Condns DB=>MWB (month 7),  !- Name
    7,                       !- Month
    21,                      !- Day of Month
    SummerDesignDay,         !- Day Type
    28.0,                    !- Maximum Dry-Bulb Temperature {C}
    7.1,                     !- Daily Dry-Bulb Temperature Range {deltaC}
    DefaultMultipliers,      !- Dry-Bulb Temperature Range Modifier Type
    ,                        !- Dry-Bulb Temperature Range Modifier Day Schedule Name
    DewPoint,                !- Humidity Condition Type
    11.1,                    !- Wetbulb or DewPoint at Maximum Dry-Bulb {C}
    ,                        !- Humidity Condition Day Schedule Name
    ,                        !- Humidity Ratio at Maximum Dry-Bulb {kgWater/kgDryAir}
    0.0,                     !- Enthalpy at Maximum Dry-Bulb {J/kg}
    ,                        !- Daily Wet-Bulb Temperature Range {deltaC}
    101200.0,                !- Barometric Pressure {Pa}
    3.6,                     !- Wind Speed {m/s}
    60.0,                    !- Wind Direction {deg}
    No,                      !- Rain Indicator
    No,                      !- Snow Indicator
    No,                      !- Daylight Saving Time Indicator
    AshraeClearSky,          !- Solar Model Indicator
    ,                        !- Beam Solar Day Schedule Name
    ,                        !- Diffuse Solar Day Schedule Name
    ,                        !- ASHRAE Clear Sky Optical Depth for Beam Irradiance (taub) {dimensionless}
    ,                        !- ASHRAE Clear Sky Optical Depth for Diffuse Irradiance (taud) {dimensionless}
    1.0;                     !- Sky Clearness

  SizingPeriod:DesignDay,
    AMSTERDAM Ann Clg .4% Condns DB=>MWB (month 8),  !- Name
    8,                       !- Month
    21,                      !- Day of Month
    SummerDesignDay,         !- Day Type
    28.0,                    !- Maximum Dry-Bulb Temperature {C}
    7.1,                     !- Daily Dry-Bulb Temperature Range {deltaC}
    DefaultMultipliers,      !- Dry-Bulb Temperature Range Modifier Type
    ,                        !- Dry-Bulb Temperature Range Modifier Day Schedule Name
    DewPoint,                !- Humidity Condition Type
    11.1,                    !- Wetbulb or DewPoint at Maximum Dry-Bulb {C}
    ,                        !- Humidity Condition Day Schedule Name
    ,                        !- Humidity Ratio at Maximum Dry-Bulb {kgWater/kgDryAir}
    0.0,                     !- Enthalpy at Maximum Dry-Bulb {J/kg}
    ,                        !- Daily Wet-Bulb Temperature Range {deltaC}
    101200.0,                !- Barometric Pressure {Pa}
    3.6,                     !- Wind Speed {m/s}
    60.0,                    !- Wind Direction {deg}
    No,                      !- Rain Indicator
    No,                      !- Snow Indicator
    No,                      !- Daylight Saving Time Indicator
    AshraeClearSky,          !- Solar Model Indicator
    ,                        !- Beam Solar Day Schedule Name
    ,                        !- Diffuse Solar Day Schedule Name
    ,                        !- ASHRAE Clear Sky Optical Depth for Beam Irradiance (taub) {dimensionless}
    ,                        !- ASHRAE Clear Sky Optical Depth for Diffuse Irradiance (taud) {dimensionless}
    1.0;                     !- Sky Clearness

  SizingPeriod:DesignDay,
    AMSTERDAM Ann Clg .4% Condns DB=>MWB (month 9),  !- Name
    9,                       !- Month
    21,                      !- Day of Month
    SummerDesignDay,         !- Day Type
    28.0,                    !- Maximum Dry-Bulb Temperature {C}
    7.1,                     !- Daily Dry-Bulb Temperature Range {deltaC}
    DefaultMultipliers,      !- Dry-Bulb Temperature Range Modifier Type
    ,                        !- Dry-Bulb Temperature Range Modifier Day Schedule Name
    DewPoint,                !- Humidity Condition Type
    11.1,                    !- Wetbulb or DewPoint at Maximum Dry-Bulb {C}
    ,                        !- Humidity Condition Day Schedule Name
    ,                        !- Humidity Ratio at Maximum Dry-Bulb {kgWater/kgDryAir}
    0.0,                     !- Enthalpy at Maximum Dry-Bulb {J/kg}
    ,                        !- Daily Wet-Bulb Temperature Range {deltaC}
    101200.0,                !- Barometric Pressure {Pa}
    3.6,                     !- Wind Speed {m/s}
    60.0,                    !- Wind Direction {deg}
    No,                      !- Rain Indicator
    No,                      !- Snow Indicator
    No,                      !- Daylight Saving Time Indicator
    AshraeClearSky,          !- Solar Model Indicator
    ,                        !- Beam Solar Day Schedule Name
    ,                        !- Diffuse Solar Day Schedule Name
    ,                        !- ASHRAE Clear Sky Optical Depth for Beam Irradiance (taub) {dimensionless}
    ,                        !- ASHRAE Clear Sky Optical Depth for Diffuse Irradiance (taud) {dimensionless}
    1.0;                     !- Sky Clearness

!-   ===========  ALL OBJECTS IN CLASS: RUNPERIOD ===========

  RunPeriod,
    Run Period 1,            !- Name
    1,                       !- Begin Month
    1,                       !- Begin Day of Month
    ,                        !- Begin Year
    1,                       !- End Month
    1,                       !- End Day of Month
    ,                        !- End Year
    ,                        !- Day of Week for Start Day
    No,                      !- Use Weather File Holidays and Special Days
    No,                      !- Use Weather File Daylight Saving Period
    No,                      !- Apply Weekend Holiday Rule
    Yes,                     !- Use Weather File Rain Indicators
    Yes;                     !- Use Weather File Snow Indicators

!-   ===========  ALL OBJECTS IN CLASS: SITE:GROUNDTEMPERATURE:BUILDINGSURFACE ===========

  Site:GroundTemperature:BuildingSurface,5.47,5.69,6.52,9.21,11.63,13.55,14.57,14.32,12.94,10.72,8.39,6.43;

!-   ===========  ALL OBJECTS IN CLASS: SCHEDULETYPELIMITS ===========

  ScheduleTypeLimits,
    ActivityLevel,           !- Name
    0,                       !- Lower Limit Value
    ,                        !- Upper Limit Value
    Continuous,              !- Numeric Type
    activitylevel;           !- Unit Type

  ScheduleTypeLimits,
    Fractional Sch Limits,   !- Name
    0,                       !- Lower Limit Value
    1,                       !- Upper Limit Value
    Continuous;              !- Numeric Type

  ScheduleTypeLimits,
    HVACTemplate Any Number; !- Name

!-   ===========  ALL OBJECTS IN CLASS: SCHEDULE:DAY:INTERVAL ===========

  Schedule:Day:Interval,
    Schedule Day On,         !- Name
    Fractional Sch Limits,   !- Schedule Type Limits Name
    No,                      !- Interpolate to Timestep
    24:00,                   !- Time 1
    1;                       !- Value Until Time 1

  Schedule:Day:Interval,
    Schedule Day Off,        !- Name
    Fractional Sch Limits,   !- Schedule Type Limits Name
    No,                      !- Interpolate to Timestep
    24:00,                   !- Time 1
    0;                       !- Value Until Time 1

  Schedule:Day:Interval,
    Schedule Day Activity Level,  !- Name
    ActivityLevel,           !- Schedule Type Limits Name
    No,                      !- Interpolate to Timestep
    24:00,                   !- Time 1
    125;                     !- Value Until Time 1

  Schedule:Day:Interval,
    Schedule 5% Load,        !- Name
    Fractional Sch Limits,   !- Schedule Type Limits Name
    No,                      !- Interpolate to Timestep
    24:00,                   !- Time 1
    0.05;                    !- Value Until Time 1

  Schedule:Day:Interval,
    Heating Always Off,      !- Name
    ,                        !- Schedule Type Limits Name
    No,                      !- Interpolate to Timestep
    Until: 24:00,            !- Time 1
    0;                       !- Value Until Time 1

  Schedule:Day:Interval,
    Cooling Always Off,      !- Name
    ,                        !- Schedule Type Limits Name
    No,                      !- Interpolate to Timestep
    Until: 24:00,            !- Time 1
    90;                      !- Value Until Time 1

  Schedule:Day:Interval,
    Cooling Always on Setback for Base Space Type,  !- Name
    ,                        !- Schedule Type Limits Name
    No,                      !- Interpolate to Timestep
    Until: 24:00,            !- Time 1
    25.0;                    !- Value Until Time 1

  Schedule:Day:Interval,
    Heating Always on Setback for Base Space Type,  !- Name
    ,                        !- Schedule Type Limits Name
    No,                      !- Interpolate to Timestep
    Until: 24:00,            !- Time 1
    18.5;                    !- Value Until Time 1

  Schedule:Day:Interval,
    Schedule Day Weekday Diversity Base Space Type,  !- Name
    Fractional Sch Limits,   !- Schedule Type Limits Name
    No,                      !- Interpolate to Timestep
    01:00,                   !- Time 1
    0.07,                    !- Value Until Time 1
    02:00,                   !- Time 2
    0.07,                    !- Value Until Time 2
    03:00,                   !- Time 3
    0.08,                    !- Value Until Time 3
    04:00,                   !- Time 4
    0.07,                    !- Value Until Time 4
    05:00,                   !- Time 5
    0.09,                    !- Value Until Time 5
    06:00,                   !- Time 6
    0.05,                    !- Value Until Time 6
    07:00,                   !- Time 7
    0.07,                    !- Value Until Time 7
    08:00,                   !- Time 8
    0.21,                    !- Value Until Time 8
    09:00,                   !- Time 9
    0.35,                    !- Value Until Time 9
    10:00,                   !- Time 10
    0.46,                    !- Value Until Time 10
    11:00,                   !- Time 11
    0.53,                    !- Value Until Time 11
    12:00,                   !- Time 12
    0.59,                    !- Value Until Time 12
    13:00,                   !- Time 13
    0.56,                    !- Value Until Time 13
    14:00,                   !- Time 14
    0.54,                    !- Value Until Time 14
    15:00,                   !- Time 15
    0.54,                    !- Value Until Time 15
    16:00,                   !- Time 16
    0.54,                    !- Value Until Time 16
    17:00,                   !- Time 17
    0.52,                    !- Value Until Time 17
    18:00,                   !- Time 18
    0.44,                    !- Value Until Time 18
    19:00,                   !- Time 19
    0.33,                    !- Value Until Time 19
    20:00,                   !- Time 20
    0.19,                    !- Value Until Time 20
    21:00,                   !- Time 21
    0.1,                     !- Value Until Time 21
    22:00,                   !- Time 22
    0.13,                    !- Value Until Time 22
    23:00,                   !- Time 23
    0.12,                    !- Value Until Time 23
    24:00,                   !- Time 24
    0.1;                     !- Value Until Time 24

  Schedule:Day:Interval,
    Schedule Day Morning Weekday Diversity Base Space Type,  !- Name
    Fractional Sch Limits,   !- Schedule Type Limits Name
    No,                      !- Interpolate to Timestep
    01:00,                   !- Time 1
    0.07,                    !- Value Until Time 1
    02:00,                   !- Time 2
    0.07,                    !- Value Until Time 2
    03:00,                   !- Time 3
    0.08,                    !- Value Until Time 3
    04:00,                   !- Time 4
    0.07,                    !- Value Until Time 4
    05:00,                   !- Time 5
    0.09,                    !- Value Until Time 5
    06:00,                   !- Time 6
    0.05,                    !- Value Until Time 6
    07:00,                   !- Time 7
    0.07,                    !- Value Until Time 7
    08:00,                   !- Time 8
    0.21,                    !- Value Until Time 8
    24:00,                   !- Time 9
    1;                       !- Value Until Time 9

  Schedule:Day:Interval,
    Schedule Day Cooling Base Space Type,  !- Name
    ,                        !- Schedule Type Limits Name
    No,                      !- Interpolate to Timestep
    01:00,                   !- Time 1
    25.0,                    !- Value Until Time 1
    02:00,                   !- Time 2
    25.0,                    !- Value Until Time 2
    03:00,                   !- Time 3
    25.0,                    !- Value Until Time 3
    04:00,                   !- Time 4
    25.0,                    !- Value Until Time 4
    05:00,                   !- Time 5
    25.0,                    !- Value Until Time 5
    06:00,                   !- Time 6
    25.0,                    !- Value Until Time 6
    07:00,                   !- Time 7
    23.0,                    !- Value Until Time 7
    08:00,                   !- Time 8
    23.0,                    !- Value Until Time 8
    09:00,                   !- Time 9
    23.0,                    !- Value Until Time 9
    10:00,                   !- Time 10
    23.0,                    !- Value Until Time 10
    11:00,                   !- Time 11
    23.0,                    !- Value Until Time 11
    12:00,                   !- Time 12
    23.0,                    !- Value Until Time 12
    13:00,                   !- Time 13
    23.0,                    !- Value Until Time 13
    14:00,                   !- Time 14
    23.0,                    !- Value Until Time 14
    15:00,                   !- Time 15
    23.0,                    !- Value Until Time 15
    16:00,                   !- Time 16
    23.0,                    !- Value Until Time 16
    17:00,                   !- Time 17
    23.0,                    !- Value Until Time 17
    18:00,                   !- Time 18
    23.0,                    !- Value Until Time 18
    19:00,                   !- Time 19
    25.0,                    !- Value Until Time 19
    20:00,                   !- Time 20
    25.0,                    !- Value Until Time 20
    21:00,                   !- Time 21
    25.0,                    !- Value Until Time 21
    22:00,                   !- Time 22
    25.0,                    !- Value Until Time 22
    23:00,                   !- Time 23
    25.0,                    !- Value Until Time 23
    24:00,                   !- Time 24
    25.0;                    !- Value Until Time 24

  Schedule:Day:Interval,
    Schedule Day Heating Base Space Type,  !- Name
    ,                        !- Schedule Type Limits Name
    No,                      !- Interpolate to Timestep
    01:00,                   !- Time 1
    18.5,                    !- Value Until Time 1
    02:00,                   !- Time 2
    18.5,                    !- Value Until Time 2
    03:00,                   !- Time 3
    18.5,                    !- Value Until Time 3
    04:00,                   !- Time 4
    18.5,                    !- Value Until Time 4
    05:00,                   !- Time 5
    18.5,                    !- Value Until Time 5
    06:00,                   !- Time 6
    18.5,                    !- Value Until Time 6
    07:00,                   !- Time 7
    21.0,                    !- Value Until Time 7
    08:00,                   !- Time 8
    21.0,                    !- Value Until Time 8
    09:00,                   !- Time 9
    21.0,                    !- Value Until Time 9
    10:00,                   !- Time 10
    21.0,                    !- Value Until Time 10
    11:00,                   !- Time 11
    21.0,                    !- Value Until Time 11
    12:00,                   !- Time 12
    21.0,                    !- Value Until Time 12
    13:00,                   !- Time 13
    21.0,                    !- Value Until Time 13
    14:00,                   !- Time 14
    21.0,                    !- Value Until Time 14
    15:00,                   !- Time 15
    21.0,                    !- Value Until Time 15
    16:00,                   !- Time 16
    21.0,                    !- Value Until Time 16
    17:00,                   !- Time 17
    21.0,                    !- Value Until Time 17
    18:00,                   !- Time 18
    21.0,                    !- Value Until Time 18
    19:00,                   !- Time 19
    18.5,                    !- Value Until Time 19
    20:00,                   !- Time 20
    18.5,                    !- Value Until Time 20
    21:00,                   !- Time 21
    18.5,                    !- Value Until Time 21
    22:00,                   !- Time 22
    18.5,                    !- Value Until Time 22
    23:00,                   !- Time 23
    18.5,                    !- Value Until Time 23
    24:00,                   !- Time 24
    18.5;                    !- Value Until Time 24

  Schedule:Day:Interval,
    Cooling Always on Setback for Base [Without Windows] Space Type,  !- Name
    ,                        !- Schedule Type Limits Name
    No,                      !- Interpolate to Timestep
    Until: 24:00,            !- Time 1
    25.0;                    !- Value Until Time 1

  Schedule:Day:Interval,
    Heating Always on Setback for Base [Without Windows] Space Type,  !- Name
    ,                        !- Schedule Type Limits Name
    No,                      !- Interpolate to Timestep
    Until: 24:00,            !- Time 1
    18.5;                    !- Value Until Time 1

  Schedule:Day:Interval,
    Schedule Day Cooling Base [Without Windows] Space Type,  !- Name
    ,                        !- Schedule Type Limits Name
    No,                      !- Interpolate to Timestep
    01:00,                   !- Time 1
    25.0,                    !- Value Until Time 1
    02:00,                   !- Time 2
    25.0,                    !- Value Until Time 2
    03:00,                   !- Time 3
    25.0,                    !- Value Until Time 3
    04:00,                   !- Time 4
    25.0,                    !- Value Until Time 4
    05:00,                   !- Time 5
    25.0,                    !- Value Until Time 5
    06:00,                   !- Time 6
    25.0,                    !- Value Until Time 6
    07:00,                   !- Time 7
    23.0,                    !- Value Until Time 7
    08:00,                   !- Time 8
    23.0,                    !- Value Until Time 8
    09:00,                   !- Time 9
    23.0,                    !- Value Until Time 9
    10:00,                   !- Time 10
    23.0,                    !- Value Until Time 10
    11:00,                   !- Time 11
    23.0,                    !- Value Until Time 11
    12:00,                   !- Time 12
    23.0,                    !- Value Until Time 12
    13:00,                   !- Time 13
    23.0,                    !- Value Until Time 13
    14:00,                   !- Time 14
    23.0,                    !- Value Until Time 14
    15:00,                   !- Time 15
    23.0,                    !- Value Until Time 15
    16:00,                   !- Time 16
    23.0,                    !- Value Until Time 16
    17:00,                   !- Time 17
    23.0,                    !- Value Until Time 17
    18:00,                   !- Time 18
    23.0,                    !- Value Until Time 18
    19:00,                   !- Time 19
    25.0,                    !- Value Until Time 19
    20:00,                   !- Time 20
    25.0,                    !- Value Until Time 20
    21:00,                   !- Time 21
    25.0,                    !- Value Until Time 21
    22:00,                   !- Time 22
    25.0,                    !- Value Until Time 22
    23:00,                   !- Time 23
    25.0,                    !- Value Until Time 23
    24:00,                   !- Time 24
    25.0;                    !- Value Until Time 24

  Schedule:Day:Interval,
    Schedule Day Heating Base [Without Windows] Space Type,  !- Name
    ,                        !- Schedule Type Limits Name
    No,                      !- Interpolate to Timestep
    01:00,                   !- Time 1
    18.5,                    !- Value Until Time 1
    02:00,                   !- Time 2
    18.5,                    !- Value Until Time 2
    03:00,                   !- Time 3
    18.5,                    !- Value Until Time 3
    04:00,                   !- Time 4
    18.5,                    !- Value Until Time 4
    05:00,                   !- Time 5
    18.5,                    !- Value Until Time 5
    06:00,                   !- Time 6
    18.5,                    !- Value Until Time 6
    07:00,                   !- Time 7
    21.0,                    !- Value Until Time 7
    08:00,                   !- Time 8
    21.0,                    !- Value Until Time 8
    09:00,                   !- Time 9
    21.0,                    !- Value Until Time 9
    10:00,                   !- Time 10
    21.0,                    !- Value Until Time 10
    11:00,                   !- Time 11
    21.0,                    !- Value Until Time 11
    12:00,                   !- Time 12
    21.0,                    !- Value Until Time 12
    13:00,                   !- Time 13
    21.0,                    !- Value Until Time 13
    14:00,                   !- Time 14
    21.0,                    !- Value Until Time 14
    15:00,                   !- Time 15
    21.0,                    !- Value Until Time 15
    16:00,                   !- Time 16
    21.0,                    !- Value Until Time 16
    17:00,                   !- Time 17
    21.0,                    !- Value Until Time 17
    18:00,                   !- Time 18
    21.0,                    !- Value Until Time 18
    19:00,                   !- Time 19
    18.5,                    !- Value Until Time 19
    20:00,                   !- Time 20
    18.5,                    !- Value Until Time 20